<?xml version="1.0" encoding="UTF-8"?>

<!-- generated on 2022-06-15 17:23:39 by Eclipse SUMO netedit Version v1_12_0+1067-9f738abf540
<configuration xmlns:xsi="http://www.w3.org/2001/XMLSchema-instance" xsi:noNamespaceSchemaLocation="http://sumo.dlr.de/xsd/netconvertConfiguration.xsd">

    <output>
        <output-file value="/home/gauravb/Documents/LearnProgramming/sumo/exp1/ramp.net.xml"/>
    </output>

    <processing>
        <offset.disable-normalization value="true"/>
    </processing>

    <junctions>
        <no-turnarounds value="true"/>
    </junctions>

    <report>
        <aggregate-warnings value="5"/>
    </report>

</configuration>
-->

<net version="1.9" junctionCornerDetail="5" limitTurnSpeed="5.50" xmlns:xsi="http://www.w3.org/2001/XMLSchema-instance" xsi:noNamespaceSchemaLocation="http://sumo.dlr.de/xsd/net_file.xsd">

    <location netOffset="0.00,0.00" convBoundary="-44.05,-48.83,446.30,60.28" origBoundary="10000000000.00,10000000000.00,-10000000000.00,-10000000000.00" projParameter="!"/>

    <edge id=":J5_0" function="internal">
        <lane id=":J5_0_0" index="0" speed="13.89" length="12.60" shape="270.42,53.73 273.58,55.01 276.30,56.17 279.07,57.04 282.39,57.39"/>
    </edge>
    <edge id=":J5_1" function="internal">
        <lane id=":J5_1_0" index="0" speed="13.89" length="12.59" shape="269.79,57.34 282.39,57.39"/>
    </edge>

    <edge id="E2" from="J4" to="J5" priority="-1">
        <lane id="E2_0" index="0" speed="13.89" length="313.84" shape="-44.04,56.38 269.79,57.34"/>
    </edge>
    <edge id="E3" from="J5" to="J6" priority="-1">
        <lane id="E3_0" index="0" speed="13.89" length="163.93" shape="282.39,57.39 446.31,58.68"/>
    </edge>
    <edge id="E4" from="J7" to="J5" priority="-1">
        <lane id="E4_0" index="0" speed="13.89" length="309.29" shape="-20.83,-50.33 270.42,53.73"/>
    </edge>

    <junction id="J4" type="dead_end" x="-44.05" y="57.98" incLanes="" intLanes="" shape="-44.05,57.98 -44.04,54.78"/>
    <junction id="J5" type="priority" x="280.33" y="58.97" incLanes="E4_0 E2_0" intLanes=":J5_0_0 :J5_1_0" shape="282.37,58.99 282.40,55.79 279.86,55.65 278.03,55.29 276.55,54.74 275.10,54.03 273.35,53.18 270.96,52.22 269.89,55.24 269.80,55.74 269.79,58.94">
        <request index="0" response="00" foes="10" cont="0"/>
        <request index="1" response="01" foes="01" cont="0"/>
    </junction>
    <junction id="J6" type="dead_end" x="446.30" y="60.28" incLanes="E3_0" intLanes="" shape="446.33,57.08 446.30,60.28"/>
    <junction id="J7" type="dead_end" x="-21.37" y="-48.83" incLanes="" intLanes="" shape="-21.37,-48.83 -20.29,-51.84"/>

    <connection from="E2" to="E3" fromLane="0" toLane="0" via=":J5_1_0" dir="s" state="m"/>
    <connection from="E4" to="E3" fromLane="0" toLane="0" via=":J5_0_0" dir="s" state="M"/>

    <connection from=":J5_0" to="E3" fromLane="0" toLane="0" dir="s" state="M"/>
    <connection from=":J5_1" to="E3" fromLane="0" toLane="0" dir="s" state="M"/>

</net>
