<?xml version="1.0" encoding="UTF-8"?>

<!-- generated on 2022-06-15 17:51:40 by Eclipse SUMO netedit Version v1_12_0+1067-9f738abf540
-->

<routes xmlns:xsi="http://www.w3.org/2001/XMLSchema-instance" xsi:noNamespaceSchemaLocation="http://sumo.dlr.de/xsd/routes_file.xsd">
    <flow id="f_0" begin="0.00" from="E4" to="E3" end="3600.00" vehsPerHour="1800.00"/>
    <flow id="f_1" begin="0.00" departPos="free" departSpeed="30.00" from="E2" to="E3" end="3600.00" vehsPerHour="1800.00"/>
    <flow id="f_2" begin="0.00" departPos="30.00" departSpeed="30.00" from="E2" to="E3" end="3600.00" vehsPerHour="1800.00"/>
    <flow id="f_3" begin="0.00" departPos="50.00" departSpeed="30.00" from="E2" to="E3" end="3600.00" vehsPerHour="1800.00"/>
</routes>
